<?xml version="1.0" encoding="UTF-8"?>

<!-- generated on 2025-12-13T16:25:51.363505+06:00 by Eclipse SUMO netconvert 1.25.0
<netconvertConfiguration xmlns:xsi="http://www.w3.org/2001/XMLSchema-instance" xsi:noNamespaceSchemaLocation="http://sumo.dlr.de/xsd/netconvertConfiguration.xsd">

    <input>
        <osm-files value="map.osm"/>
    </input>

    <output>
        <output-file value="bishkek.net.xml"/>
    </output>

    <projection>
        <proj.utm value="true"/>
    </projection>

</netconvertConfiguration>
-->

<net version="1.20" junctionCornerDetail="5" limitTurnSpeed="5.50" xmlns:xsi="http://www.w3.org/2001/XMLSchema-instance" xsi:noNamespaceSchemaLocation="http://sumo.dlr.de/xsd/net_file.xsd">

    <location netOffset="-467898.73,-4746932.75" convBoundary="0.00,0.00,879.85,1141.38" origBoundary="74.606950,42.874330,74.617727,42.884610" projParameter="+proj=utm +zone=43 +ellps=WGS84 +datum=WGS84 +units=m +no_defs"/>

    <type id="highway.footway" priority="1" numLanes="1" speed="2.78" allow="pedestrian" oneway="1" width="2.00"/>
    <type id="highway.primary" priority="12" numLanes="2" speed="27.78" disallow="tram rail_urban rail rail_electric rail_fast ship container cable_car subway aircraft wheelchair scooter drone" oneway="0"/>
    <type id="highway.service" priority="1" numLanes="1" speed="5.56" allow="pedestrian delivery bicycle" oneway="0"/>
    <type id="highway.steps" priority="1" numLanes="1" speed="1.39" allow="pedestrian" oneway="1" width="2.00"/>

    <edge id=":10286839199_0" function="internal">
        <lane id=":10286839199_0_0" index="0" allow="pedestrian delivery bicycle" speed="3.65" length="4.67" shape="452.77,228.91 451.60,228.07 451.22,227.26 451.65,226.47 452.87,225.71"/>
    </edge>
    <edge id=":10286839203_0" function="internal">
        <lane id=":10286839203_0_0" index="0" allow="pedestrian delivery bicycle" speed="3.65" length="4.67" shape="503.10,282.75 502.40,284.01 501.64,284.47 500.81,284.14 499.92,283.01"/>
    </edge>
    <edge id=":1066450136_0" function="internal">
        <lane id=":1066450136_0_0" index="0" allow="pedestrian delivery bicycle" speed="5.56" length="3.15" shape="338.34,113.30 337.63,113.89 337.06,114.21 336.43,114.36 335.51,114.44"/>
    </edge>
    <edge id=":1066450136_1" function="internal">
        <lane id=":1066450136_1_0" index="0" allow="pedestrian delivery bicycle" speed="4.40" length="1.05" shape="335.33,111.24 335.63,111.22 335.84,111.17 336.03,111.06 336.27,110.87"/>
    </edge>
    <edge id=":12535460201_0" function="internal">
        <lane id=":12535460201_0_0" index="0" allow="pedestrian delivery bicycle" speed="4.99" length="5.06" shape="307.86,68.36 307.65,66.98 307.05,66.02 306.06,65.48 304.67,65.35"/>
    </edge>
    <edge id=":12535460201_1" function="internal">
        <lane id=":12535460201_1_0" index="0" allow="pedestrian delivery bicycle" speed="5.56" length="10.19" shape="307.86,68.36 308.22,65.55 309.36,63.50 311.26,62.22 313.93,61.70"/>
    </edge>
    <edge id=":12535460201_2" function="internal">
        <lane id=":12535460201_2_0" index="0" allow="pedestrian delivery bicycle" speed="3.65" length="4.67" shape="307.86,68.36 308.65,67.15 309.45,66.75 310.25,67.14 311.06,68.34"/>
    </edge>
    <edge id=":12535460201_3" function="internal">
        <lane id=":12535460201_3_0" index="0" allow="pedestrian delivery bicycle" speed="5.18" length="5.18" shape="314.08,64.89 312.75,65.16 311.80,65.82 311.24,66.88 311.06,68.34"/>
    </edge>
    <edge id=":12535460201_4" function="internal">
        <lane id=":12535460201_4_0" index="0" allow="pedestrian delivery bicycle" speed="5.56" length="9.42" shape="314.08,64.89 304.67,65.35"/>
    </edge>
    <edge id=":12535460201_5" function="internal">
        <lane id=":12535460201_5_0" index="0" allow="pedestrian delivery bicycle" speed="3.65" length="4.67" shape="314.08,64.89 312.84,64.15 312.41,63.37 312.77,62.55 313.93,61.70"/>
    </edge>
    <edge id=":12535460201_6" function="internal">
        <lane id=":12535460201_6_0" index="0" allow="pedestrian delivery bicycle" speed="5.56" length="9.44" shape="304.50,62.15 313.93,61.70"/>
    </edge>
    <edge id=":12535460201_7" function="internal">
        <lane id=":12535460201_7_0" index="0" allow="pedestrian delivery bicycle" speed="5.56" length="10.39" shape="304.50,62.15 307.36,62.41 309.40,63.53 310.63,65.51 311.06,68.34"/>
    </edge>
    <edge id=":12535460201_8" function="internal">
        <lane id=":12535460201_8_0" index="0" allow="pedestrian delivery bicycle" speed="3.65" length="4.67" shape="304.50,62.15 305.74,62.89 306.18,63.67 305.83,64.49 304.67,65.35"/>
    </edge>
    <edge id=":12535460202_0" function="internal">
        <lane id=":12535460202_0_0" index="0" allow="pedestrian delivery bicycle" speed="5.56" length="9.44" shape="314.69,115.64 305.26,116.15"/>
    </edge>
    <edge id=":12535460202_1" function="internal">
        <lane id=":12535460202_1_0" index="0" allow="pedestrian delivery bicycle" speed="5.56" length="10.42" shape="314.69,115.64 311.83,115.39 309.78,114.28 308.54,112.30 308.11,109.46"/>
    </edge>
    <edge id=":12535460202_2" function="internal">
        <lane id=":12535460202_2_0" index="0" allow="pedestrian delivery bicycle" speed="3.65" length="4.67" shape="314.69,115.64 313.45,114.91 313.00,114.13 313.36,113.31 314.51,112.44"/>
    </edge>
    <edge id=":12535460202_3" function="internal">
        <lane id=":12535460202_3_0" index="0" allow="pedestrian delivery bicycle" speed="4.99" length="5.06" shape="311.31,109.44 311.52,110.82 312.12,111.78 313.12,112.32 314.51,112.44"/>
    </edge>
    <edge id=":12535460202_4" function="internal">
        <lane id=":12535460202_4_0" index="0" allow="pedestrian delivery bicycle" speed="5.56" length="10.20" shape="311.31,109.44 310.95,112.26 309.82,114.32 307.92,115.61 305.26,116.15"/>
    </edge>
    <edge id=":12535460202_5" function="internal">
        <lane id=":12535460202_5_0" index="0" allow="pedestrian delivery bicycle" speed="3.65" length="4.67" shape="311.31,109.44 310.52,110.65 309.72,111.05 308.92,110.66 308.11,109.46"/>
    </edge>
    <edge id=":12535460202_6" function="internal">
        <lane id=":12535460202_6_0" index="0" allow="pedestrian delivery bicycle" speed="5.20" length="5.20" shape="305.10,112.95 306.43,112.68 307.37,112.00 307.93,110.93 308.11,109.46"/>
    </edge>
    <edge id=":12535460202_7" function="internal">
        <lane id=":12535460202_7_0" index="0" allow="pedestrian delivery bicycle" speed="5.56" length="9.42" shape="305.10,112.95 314.51,112.44"/>
    </edge>
    <edge id=":12535460202_8" function="internal">
        <lane id=":12535460202_8_0" index="0" allow="pedestrian delivery bicycle" speed="3.65" length="4.67" shape="305.10,112.95 306.34,113.69 306.78,114.47 306.42,115.29 305.26,116.15"/>
    </edge>
    <edge id=":13238626625_0" function="internal">
        <lane id=":13238626625_0_0" index="0" allow="pedestrian delivery bicycle" speed="3.65" length="4.67" shape="519.81,41.63 520.96,42.50 521.32,43.32 520.88,44.09 519.63,44.83"/>
    </edge>
    <edge id=":1746668404_0" function="internal">
        <lane id=":1746668404_0_0" index="0" disallow="tram rail_urban rail rail_electric rail_fast ship container cable_car subway aircraft wheelchair scooter drone" speed="11.11" length="0.33" shape="15.59,177.82 15.24,177.84"/>
        <lane id=":1746668404_0_1" index="1" disallow="tram rail_urban rail rail_electric rail_fast ship container cable_car subway aircraft wheelchair scooter drone" speed="11.11" length="0.33" shape="15.39,174.63 15.08,174.65"/>
    </edge>
    <edge id=":1746668404_2" function="internal">
        <lane id=":1746668404_2_0" index="0" disallow="tram rail_urban rail rail_electric rail_fast ship container cable_car subway aircraft wheelchair scooter drone" speed="11.11" length="0.26" shape="14.76,168.25 15.01,168.24"/>
        <lane id=":1746668404_2_1" index="1" disallow="tram rail_urban rail rail_electric rail_fast ship container cable_car subway aircraft wheelchair scooter drone" speed="11.11" length="0.26" shape="14.92,171.45 15.20,171.43"/>
    </edge>
    <edge id=":2061269590_0" function="internal">
        <lane id=":2061269590_0_0" index="0" allow="pedestrian delivery bicycle" speed="3.65" length="4.67" shape="520.45,54.78 521.77,55.36 522.31,56.08 522.05,56.94 521.01,57.94"/>
    </edge>
    <edge id=":2061269594_0" function="internal">
        <lane id=":2061269594_0_0" index="0" allow="pedestrian delivery bicycle" speed="5.28" length="5.21" shape="498.83,64.28 498.48,62.83 497.81,61.81 496.81,61.21 495.49,61.04"/>
    </edge>
    <edge id=":2061269594_1" function="internal">
        <lane id=":2061269594_1_0" index="0" allow="pedestrian delivery bicycle" speed="5.56" length="10.32" shape="498.83,64.28 498.92,61.44 499.90,59.33 501.77,57.97 504.54,57.34"/>
    </edge>
    <edge id=":2061269594_2" function="internal">
        <lane id=":2061269594_2_0" index="0" allow="pedestrian delivery bicycle" speed="3.65" length="4.67" shape="498.83,64.28 499.49,62.99 500.24,62.51 501.08,62.81 502.01,63.91"/>
    </edge>
    <edge id=":2061269594_3" function="internal">
        <lane id=":2061269594_3_0" index="0" allow="pedestrian delivery bicycle" speed="5.01" length="5.04" shape="504.80,60.53 503.45,60.83 502.53,61.50 502.05,62.53 502.01,63.91"/>
    </edge>
    <edge id=":2061269594_4" function="internal">
        <lane id=":2061269594_4_0" index="0" allow="pedestrian delivery bicycle" speed="5.56" length="9.32" shape="504.80,60.53 495.49,61.04"/>
    </edge>
    <edge id=":2061269594_5" function="internal">
        <lane id=":2061269594_5_0" index="0" allow="pedestrian delivery bicycle" speed="3.65" length="4.67" shape="504.80,60.53 503.54,59.83 503.08,59.06 503.41,58.23 504.54,57.34"/>
    </edge>
    <edge id=":2061269594_6" function="internal">
        <lane id=":2061269594_6_0" index="0" allow="pedestrian delivery bicycle" speed="5.56" length="9.15" shape="495.41,57.84 504.54,57.34"/>
    </edge>
    <edge id=":2061269594_7" function="internal">
        <lane id=":2061269594_7_0" index="0" allow="pedestrian delivery bicycle" speed="5.56" length="10.05" shape="495.41,57.84 498.03,58.16 500.01,59.28 501.33,61.20 502.01,63.91"/>
    </edge>
    <edge id=":2061269594_8" function="internal">
        <lane id=":2061269594_8_0" index="0" allow="pedestrian delivery bicycle" speed="3.65" length="4.67" shape="495.41,57.84 496.63,58.61 497.05,59.39 496.67,60.21 495.49,61.04"/>
    </edge>
    <edge id=":244500430_0" function="internal">
        <lane id=":244500430_0_0" index="0" disallow="tram rail_urban rail rail_electric rail_fast ship container cable_car subway aircraft wheelchair scooter drone" speed="3.65" length="4.67" shape="377.19,8.72 377.94,7.48 378.72,7.05 379.54,7.42 380.39,8.58"/>
    </edge>
    <edge id=":244500432_0" function="internal">
        <lane id=":244500432_0_0" index="0" disallow="tram rail_urban rail rail_electric rail_fast ship container cable_car subway aircraft wheelchair scooter drone" speed="6.47" length="9.03" shape="376.73,163.85 376.32,161.41 375.22,159.69 373.44,158.72 370.97,158.47"/>
    </edge>
    <edge id=":244500432_1" function="internal">
        <lane id=":244500432_1_0" index="0" disallow="tram rail_urban rail rail_electric rail_fast ship container cable_car subway aircraft wheelchair scooter drone" speed="16.67" length="21.26" shape="376.73,163.85 376.19,142.60"/>
        <lane id=":244500432_1_1" index="1" disallow="tram rail_urban rail rail_electric rail_fast ship container cable_car subway aircraft wheelchair scooter drone" speed="16.67" length="21.26" shape="379.93,163.77 379.39,142.52"/>
        <lane id=":244500432_1_2" index="2" disallow="tram rail_urban rail rail_electric rail_fast ship container cable_car subway aircraft wheelchair scooter drone" speed="16.67" length="21.26" shape="383.13,163.69 382.59,142.43"/>
    </edge>
    <edge id=":244500432_4" function="internal">
        <lane id=":244500432_4_0" index="0" disallow="tram rail_urban rail rail_electric rail_fast ship container cable_car subway aircraft wheelchair scooter drone" speed="10.04" length="4.04" shape="383.13,163.69 383.74,159.70"/>
    </edge>
    <edge id=":244500432_5" function="internal">
        <lane id=":244500432_5_0" index="0" disallow="tram rail_urban rail rail_electric rail_fast ship container cable_car subway aircraft wheelchair scooter drone" speed="3.65" length="1.44" shape="383.13,163.69 383.90,162.47"/>
    </edge>
    <edge id=":244500432_22" function="internal">
        <lane id=":244500432_22_0" index="0" disallow="tram rail_urban rail rail_electric rail_fast ship container cable_car subway aircraft wheelchair scooter drone" speed="10.04" length="18.36" shape="383.74,159.70 383.95,158.33 386.73,154.38 391.46,151.84 398.15,150.71"/>
    </edge>
    <edge id=":244500432_23" function="internal">
        <lane id=":244500432_23_0" index="0" disallow="tram rail_urban rail rail_electric rail_fast ship container cable_car subway aircraft wheelchair scooter drone" speed="3.65" length="3.23" shape="383.90,162.47 384.69,162.05 385.50,162.43 386.33,163.61"/>
    </edge>
    <edge id=":244500432_6" function="internal">
        <lane id=":244500432_6_0" index="0" disallow="tram rail_urban rail rail_electric rail_fast ship container cable_car subway aircraft wheelchair scooter drone" speed="6.79" length="9.71" shape="398.50,157.10 395.92,157.62 394.10,158.85 393.03,160.79 392.73,163.44"/>
    </edge>
    <edge id=":244500432_7" function="internal">
        <lane id=":244500432_7_0" index="0" disallow="tram rail_urban rail rail_electric rail_fast ship container cable_car subway aircraft wheelchair scooter drone" speed="11.11" length="27.55" shape="398.50,157.10 370.97,158.47"/>
        <lane id=":244500432_7_1" index="1" disallow="tram rail_urban rail rail_electric rail_fast ship container cable_car subway aircraft wheelchair scooter drone" speed="11.11" length="27.55" shape="398.32,153.91 370.83,155.27"/>
    </edge>
    <edge id=":244500432_9" function="internal">
        <lane id=":244500432_9_0" index="0" disallow="tram rail_urban rail rail_electric rail_fast ship container cable_car subway aircraft wheelchair scooter drone" speed="9.79" length="6.55" shape="398.32,153.91 391.78,153.53"/>
    </edge>
    <edge id=":244500432_10" function="internal">
        <lane id=":244500432_10_0" index="0" disallow="tram rail_urban rail rail_electric rail_fast ship container cable_car subway aircraft wheelchair scooter drone" speed="3.65" length="1.44" shape="398.32,153.91 397.08,153.18"/>
    </edge>
    <edge id=":244500432_24" function="internal">
        <lane id=":244500432_24_0" index="0" disallow="tram rail_urban rail rail_electric rail_fast ship container cable_car subway aircraft wheelchair scooter drone" speed="9.79" length="15.72" shape="391.78,153.53 391.56,153.51 386.68,151.47 383.69,147.78 382.59,142.43"/>
    </edge>
    <edge id=":244500432_25" function="internal">
        <lane id=":244500432_25_0" index="0" disallow="tram rail_urban rail rail_electric rail_fast ship container cable_car subway aircraft wheelchair scooter drone" speed="3.65" length="3.23" shape="397.08,153.18 396.64,152.40 396.99,151.58 398.15,150.71"/>
    </edge>
    <edge id=":244500432_11" function="internal">
        <lane id=":244500432_11_0" index="0" disallow="tram rail_urban rail rail_electric rail_fast ship container cable_car subway aircraft wheelchair scooter drone" speed="6.44" length="9.03" shape="392.18,142.19 392.60,144.64 393.70,146.34 395.49,147.30 397.97,147.52"/>
    </edge>
    <edge id=":244500432_12" function="internal">
        <lane id=":244500432_12_0" index="0" disallow="tram rail_urban rail rail_electric rail_fast ship container cable_car subway aircraft wheelchair scooter drone" speed="16.67" length="21.26" shape="392.18,142.19 392.73,163.44"/>
        <lane id=":244500432_12_1" index="1" disallow="tram rail_urban rail rail_electric rail_fast ship container cable_car subway aircraft wheelchair scooter drone" speed="16.67" length="21.26" shape="388.98,142.27 389.53,163.52"/>
        <lane id=":244500432_12_2" index="2" disallow="tram rail_urban rail rail_electric rail_fast ship container cable_car subway aircraft wheelchair scooter drone" speed="16.67" length="21.26" shape="385.78,142.35 386.33,163.61"/>
    </edge>
    <edge id=":244500432_15" function="internal">
        <lane id=":244500432_15_0" index="0" disallow="tram rail_urban rail rail_electric rail_fast ship container cable_car subway aircraft wheelchair scooter drone" speed="9.99" length="4.08" shape="385.78,142.35 385.17,146.39"/>
    </edge>
    <edge id=":244500432_16" function="internal">
        <lane id=":244500432_16_0" index="0" disallow="tram rail_urban rail rail_electric rail_fast ship container cable_car subway aircraft wheelchair scooter drone" speed="3.65" length="1.44" shape="385.78,142.35 385.02,143.57"/>
    </edge>
    <edge id=":244500432_26" function="internal">
        <lane id=":244500432_26_0" index="0" disallow="tram rail_urban rail rail_electric rail_fast ship container cable_car subway aircraft wheelchair scooter drone" speed="9.99" length="18.29" shape="385.17,146.39 384.97,147.76 382.20,151.71 377.49,154.22 370.83,155.27"/>
    </edge>
    <edge id=":244500432_27" function="internal">
        <lane id=":244500432_27_0" index="0" disallow="tram rail_urban rail rail_electric rail_fast ship container cable_car subway aircraft wheelchair scooter drone" speed="3.65" length="3.23" shape="385.02,143.57 384.23,143.99 383.42,143.61 382.59,142.43"/>
    </edge>
    <edge id=":244500432_17" function="internal">
        <lane id=":244500432_17_0" index="0" disallow="tram rail_urban rail rail_electric rail_fast ship container cable_car subway aircraft wheelchair scooter drone" speed="6.73" length="9.59" shape="370.55,148.88 373.07,148.39 374.86,147.18 375.89,145.25 376.19,142.60"/>
    </edge>
    <edge id=":244500432_18" function="internal">
        <lane id=":244500432_18_0" index="0" disallow="tram rail_urban rail rail_electric rail_fast ship container cable_car subway aircraft wheelchair scooter drone" speed="11.11" length="27.47" shape="370.55,148.88 397.97,147.52"/>
        <lane id=":244500432_18_1" index="1" disallow="tram rail_urban rail rail_electric rail_fast ship container cable_car subway aircraft wheelchair scooter drone" speed="11.11" length="27.47" shape="370.69,152.08 398.15,150.71"/>
    </edge>
    <edge id=":244500432_20" function="internal">
        <lane id=":244500432_20_0" index="0" disallow="tram rail_urban rail rail_electric rail_fast ship container cable_car subway aircraft wheelchair scooter drone" speed="9.81" length="5.92" shape="370.69,152.08 376.60,152.49"/>
    </edge>
    <edge id=":244500432_21" function="internal">
        <lane id=":244500432_21_0" index="0" disallow="tram rail_urban rail rail_electric rail_fast ship container cable_car subway aircraft wheelchair scooter drone" speed="3.65" length="1.44" shape="370.69,152.08 371.92,152.82"/>
    </edge>
    <edge id=":244500432_28" function="internal">
        <lane id=":244500432_28_0" index="0" disallow="tram rail_urban rail rail_electric rail_fast ship container cable_car subway aircraft wheelchair scooter drone" speed="9.81" length="16.24" shape="376.60,152.49 377.42,152.55 382.26,154.63 385.24,158.31 386.33,163.61"/>
    </edge>
    <edge id=":244500432_29" function="internal">
        <lane id=":244500432_29_0" index="0" disallow="tram rail_urban rail rail_electric rail_fast ship container cable_car subway aircraft wheelchair scooter drone" speed="3.65" length="3.23" shape="371.92,152.82 372.36,153.61 371.99,154.42 370.83,155.27"/>
    </edge>
    <edge id=":244500433_0" function="internal">
        <lane id=":244500433_0_0" index="0" disallow="tram rail_urban rail rail_electric rail_fast ship container cable_car subway aircraft wheelchair scooter drone" speed="3.65" length="4.67" shape="393.88,553.41 393.10,554.63 392.31,555.04 391.50,554.65 390.68,553.47"/>
    </edge>
    <edge id=":278125658_0" function="internal">
        <lane id=":278125658_0_0" index="0" disallow="tram rail_urban rail rail_electric rail_fast ship container cable_car subway aircraft wheelchair scooter drone" speed="3.65" length="4.67" shape="673.32,135.30 674.56,136.04 675.00,136.82 674.64,137.64 673.48,138.50"/>
    </edge>
    <edge id=":4212200728_0" function="internal">
        <lane id=":4212200728_0_0" index="0" allow="pedestrian delivery bicycle" speed="5.36" length="5.54" shape="493.07,61.10 491.43,61.33 490.24,61.93 489.51,62.89 489.23,64.21"/>
    </edge>
    <edge id=":4212200728_1" function="internal">
        <lane id=":4212200728_1_0" index="0" allow="pedestrian delivery bicycle" speed="5.56" length="10.84" shape="493.07,61.10 490.13,60.74 488.12,59.47 487.03,57.30 486.88,54.23"/>
    </edge>
    <edge id=":4212200728_2" function="internal">
        <lane id=":4212200728_2_0" index="0" allow="pedestrian delivery bicycle" speed="3.65" length="4.67" shape="493.07,61.10 491.85,60.33 491.43,59.54 491.80,58.73 492.98,57.90"/>
    </edge>
    <edge id=":4212200728_3" function="internal">
        <lane id=":4212200728_3_0" index="0" allow="pedestrian delivery bicycle" speed="4.92" length="5.14" shape="490.05,54.65 490.12,56.10 490.64,57.13 491.59,57.73 492.98,57.90"/>
    </edge>
    <edge id=":4212200728_4" function="internal">
        <lane id=":4212200728_4_0" index="0" allow="pedestrian delivery bicycle" speed="5.56" length="9.60" shape="490.05,54.65 489.23,64.21"/>
    </edge>
    <edge id=":4212200728_5" function="internal">
        <lane id=":4212200728_5_0" index="0" allow="pedestrian delivery bicycle" speed="3.65" length="4.67" shape="490.05,54.65 489.10,55.73 488.26,56.02 487.51,55.52 486.88,54.23"/>
    </edge>
    <edge id=":4212200728_6" function="internal">
        <lane id=":4212200728_6_0" index="0" allow="pedestrian delivery bicycle" speed="5.56" length="9.91" shape="486.04,64.10 486.88,54.23"/>
    </edge>
    <edge id=":4212200728_7" function="internal">
        <lane id=":4212200728_7_0" index="0" allow="pedestrian delivery bicycle" speed="5.56" length="10.48" shape="486.04,64.10 486.54,61.46 487.87,59.54 490.02,58.36 492.98,57.90"/>
    </edge>
    <edge id=":4212200728_8" function="internal">
        <lane id=":4212200728_8_0" index="0" allow="pedestrian delivery bicycle" speed="3.65" length="4.67" shape="486.04,64.10 486.87,62.93 487.69,62.56 488.47,62.98 489.23,64.21"/>
    </edge>
    <edge id=":4212279989_0" function="internal">
        <lane id=":4212279989_0_0" index="0" allow="pedestrian delivery bicycle" speed="5.56" length="0.91" shape="491.38,47.17 491.20,47.37 491.09,47.52 491.03,47.70 490.97,47.96"/>
    </edge>
    <edge id=":4212279989_1" function="internal">
        <lane id=":4212279989_1_0" index="0" allow="pedestrian delivery bicycle" speed="5.56" length="2.74" shape="487.83,47.35 488.00,46.56 488.20,46.03 488.51,45.56 489.06,44.96"/>
    </edge>
    <edge id=":4229400879_0" function="internal">
        <lane id=":4229400879_0_0" index="0" disallow="tram rail_urban rail rail_electric rail_fast ship container cable_car subway aircraft wheelchair scooter drone" speed="3.65" length="4.67" shape="0.08,175.40 -1.16,174.66 -1.60,173.88 -1.24,173.06 -0.08,172.20"/>
    </edge>
    <edge id=":429458444_0" function="internal">
        <lane id=":429458444_0_0" index="0" disallow="tram rail_urban rail rail_electric rail_fast ship container cable_car subway aircraft wheelchair scooter drone" speed="11.11" length="0.32" shape="193.36,167.05 193.02,167.07"/>
        <lane id=":429458444_0_1" index="1" disallow="tram rail_urban rail rail_electric rail_fast ship container cable_car subway aircraft wheelchair scooter drone" speed="11.11" length="0.32" shape="193.14,163.86 192.83,163.88"/>
    </edge>
    <edge id=":429458444_2" function="internal">
        <lane id=":429458444_2_0" index="0" disallow="tram rail_urban rail rail_electric rail_fast ship container cable_car subway aircraft wheelchair scooter drone" speed="11.11" length="0.27" shape="192.44,157.49 192.70,157.47"/>
        <lane id=":429458444_2_1" index="1" disallow="tram rail_urban rail rail_electric rail_fast ship container cable_car subway aircraft wheelchair scooter drone" speed="11.11" length="0.27" shape="192.64,160.68 192.92,160.66"/>
    </edge>
    <edge id=":4868477589_0" function="internal">
        <lane id=":4868477589_0_0" index="0" disallow="tram rail_urban rail rail_electric rail_fast ship container cable_car subway aircraft wheelchair scooter drone" speed="11.11" length="0.28" shape="656.46,142.57 656.19,142.58"/>
        <lane id=":4868477589_0_1" index="1" disallow="tram rail_urban rail rail_electric rail_fast ship container cable_car subway aircraft wheelchair scooter drone" speed="11.11" length="0.28" shape="656.30,139.37 656.01,139.39"/>
    </edge>
    <edge id=":4868477589_2" function="internal">
        <lane id=":4868477589_2_0" index="0" disallow="tram rail_urban rail rail_electric rail_fast ship container cable_car subway aircraft wheelchair scooter drone" speed="11.11" length="0.32" shape="655.65,133.00 655.98,132.98"/>
        <lane id=":4868477589_2_1" index="1" disallow="tram rail_urban rail rail_electric rail_fast ship container cable_car subway aircraft wheelchair scooter drone" speed="11.11" length="0.32" shape="655.83,136.19 656.14,136.17"/>
    </edge>
    <edge id=":976655797_0" function="internal">
        <lane id=":976655797_0_0" index="0" allow="pedestrian delivery bicycle" speed="5.56" length="0.87" shape="333.19,64.27 332.96,64.15 332.79,64.09 332.62,64.07 332.36,64.08"/>
    </edge>
    <edge id=":976655797_1" function="internal">
        <lane id=":976655797_1_0" index="0" allow="pedestrian delivery bicycle" speed="5.56" length="2.60" shape="332.22,60.88 332.99,60.86 333.52,60.92 334.02,61.10 334.70,61.45"/>
    </edge>

    <edge id="-1124898556" from="10286839199" to="10286839203" priority="1" type="highway.service" shape="452.82,227.31 488.75,228.46 494.01,228.65 497.30,230.38 498.51,245.40 501.51,282.88">
        <lane id="-1124898556_0" index="0" allow="pedestrian delivery bicycle" speed="5.56" length="100.10" shape="452.87,225.71 488.80,226.86 494.43,227.06 498.82,229.37 500.10,245.27 503.10,282.75"/>
    </edge>
    <edge id="-1296319308#0" from="4868477589" to="278125658" priority="12" type="highway.primary">
        <lane id="-1296319308#0_0" index="0" disallow="tram rail_urban rail rail_electric rail_fast ship container cable_car subway aircraft wheelchair scooter drone" speed="11.11" length="17.20" shape="655.98,132.98 673.16,132.11"/>
        <lane id="-1296319308#0_1" index="1" disallow="tram rail_urban rail rail_electric rail_fast ship container cable_car subway aircraft wheelchair scooter drone" speed="11.11" length="17.20" shape="656.14,136.17 673.32,135.30"/>
    </edge>
    <edge id="-1296319308#1" from="244500432" to="4868477589" priority="12" type="highway.primary" shape="384.46,153.08 419.37,151.13 656.07,137.78">
        <lane id="-1296319308#1_0" index="0" disallow="tram rail_urban rail rail_electric rail_fast ship container cable_car subway aircraft wheelchair scooter drone" speed="11.11" length="258.09" shape="397.97,147.52 419.10,146.34 655.65,133.00"/>
        <lane id="-1296319308#1_1" index="1" disallow="tram rail_urban rail rail_electric rail_fast ship container cable_car subway aircraft wheelchair scooter drone" speed="11.11" length="258.09" shape="398.15,150.71 419.28,149.53 655.83,136.19"/>
    </edge>
    <edge id="-1296319309" from="244500432" to="244500430" priority="12" type="highway.primary" shape="384.46,153.08 383.68,122.75 379.33,21.65 378.79,8.65">
        <lane id="-1296319309_0" index="0" disallow="tram rail_urban rail rail_electric rail_fast ship container cable_car subway aircraft wheelchair scooter drone" speed="16.67" length="133.78" shape="376.19,142.60 375.68,123.02 371.34,21.99 370.80,8.98"/>
        <lane id="-1296319309_1" index="1" disallow="tram rail_urban rail rail_electric rail_fast ship container cable_car subway aircraft wheelchair scooter drone" speed="16.67" length="133.78" shape="379.39,142.52 378.88,122.91 374.53,21.86 373.99,8.85"/>
        <lane id="-1296319309_2" index="2" disallow="tram rail_urban rail rail_electric rail_fast ship container cable_car subway aircraft wheelchair scooter drone" speed="16.67" length="133.78" shape="382.59,142.43 382.08,122.80 377.73,21.72 377.19,8.72"/>
    </edge>
    <edge id="-1354556748" from="976655797" to="1066450136" priority="1" type="highway.service" shape="333.17,62.44 336.13,64.03 337.95,66.42 340.00,108.32 338.64,110.95 336.49,112.78">
        <lane id="-1354556748_0" index="0" allow="pedestrian delivery bicycle" speed="5.56" length="55.32" shape="334.70,61.45 337.19,62.78 339.52,65.85 341.62,108.67 339.92,111.96 338.34,113.30"/>
    </edge>
    <edge id="-1354556750" from="12535460201" to="12535460202" priority="1" type="highway.service">
        <lane id="-1354556750_0" index="0" allow="pedestrian delivery bicycle" speed="5.56" length="41.10" shape="311.06,68.34 311.31,109.44"/>
    </edge>
    <edge id="-195709904" from="13238626625" to="4212279989" priority="1" type="highway.service" shape="519.72,43.23 503.42,42.35 493.80,43.34 491.41,44.81 489.58,46.74">
        <lane id="-195709904_0" index="0" allow="pedestrian delivery bicycle" speed="5.56" length="29.13" shape="519.63,44.83 503.46,43.95 494.33,44.89 492.43,46.06 491.38,47.17"/>
    </edge>
    <edge id="-195709907#0" from="2061269594" to="4212200728" priority="1" type="highway.service" shape="499.88,59.32 502.46,81.95 502.69,84.91 501.52,87.25 499.45,88.82 489.98,89.52 487.89,88.10 486.94,85.82 487.78,59.64">